REMARK  9 active torsions:
REMARK  status: ('A' for Active; 'I' for Inactive)
REMARK    1  A    between atoms: C_5  and  C_6 
REMARK    2  A    between atoms: C_6  and  O_7 
REMARK    3  A    between atoms: O_7  and  P_8 
REMARK    4  A    between atoms: C_12  and  C_13 
REMARK    5  A    between atoms: N_14  and  C_15 
REMARK    6  A    between atoms: C_15  and  C_16 
REMARK    7  A    between atoms: C_15  and  C_22 
REMARK    8  A    between atoms: C_19  and  O_20 
REMARK    9  A    between atoms: C_22  and  O_24 
ROOT
ATOM      1  C   PLP d   1       3.060   4.359   1.410  0.00  0.00     0.073 C 
ATOM      2  C   PLP d   1       2.846   2.923   1.039  0.00  0.00     0.064 A 
ATOM      3  N   PLP d   1       3.827   2.038   1.330  0.00  0.00    -0.262 NA
ATOM      4  C   PLP d   1       3.720   0.721   1.049  0.00  0.00     0.127 A 
ATOM      5  C   PLP d   1       2.570   0.198   0.435  0.00  0.00    -0.002 A 
ATOM      6  C   PLP d   1       1.498   1.099   0.113  0.00  0.00     0.026 A 
ATOM      7  C   PLP d   1       1.659   2.475   0.420  0.00  0.00     0.102 A 
ENDROOT
BRANCH   6   8
ATOM      8  C   PLP d   1       0.190   0.691  -0.501  0.00  0.00     0.126 C 
ATOM      9  N   THR d   1      -0.136  -0.547  -0.609  0.00  0.00    -0.282 NA
BRANCH   9  10
ATOM     10  C   THR d   1      -1.357  -1.156  -1.121  0.00  0.00     0.236 C 
BRANCH  10  11
ATOM     11  C   THR d   1      -2.386  -0.174  -1.635  0.00  0.00     0.201 C 
ATOM     12  O   THR d   1      -2.770   0.554  -0.765  0.00  0.00    -0.646 OA
ATOM     13  O   THR d   1      -2.555  -0.386  -2.804  0.00  0.00    -0.646 OA
ENDBRANCH  10  11
BRANCH  10  14
ATOM     14  C   THR d   2      -1.901  -2.107  -0.023  0.00  0.00     0.153 C 
ATOM     15  C   THR d   3      -2.930  -3.108  -0.559  0.00  0.00     0.037 C 
BRANCH  14  16
ATOM     16  O   THR d   3      -2.386  -1.403   1.097  0.00  0.00    -0.393 OA
ATOM     17  HG1 THR d   1      -3.336  -1.165   0.931  0.00  0.00     0.210 HD
ENDBRANCH  14  16
ENDBRANCH  10  14
ENDBRANCH   9  10
ENDBRANCH   6   8
BRANCH   5  18
ATOM     18  C   PLP d   1       2.617  -1.301   0.184  0.00  0.00     0.223 C 
BRANCH  18  19
ATOM     19  O   PLP d   1       3.739  -1.593  -0.623  0.00  0.00    -0.278 OA
BRANCH  19  20
ATOM     20  P   PLP d   1       4.482  -3.076  -0.063  0.00  0.00     0.422 P 
ATOM     21  O   PLP d   1       3.294  -4.336   0.059  0.00  0.00    -0.617 OA
ATOM     22  O   PLP d   1       5.705  -3.561  -1.194  0.00  0.00    -0.617 OA
ATOM     23  O   PLP d   1       5.223  -2.809   1.485  0.00  0.00    -0.617 OA
ENDBRANCH  19  20
ENDBRANCH  18  19
ENDBRANCH   5  18
BRANCH   7  24
ATOM     24  O   PLP d   1       0.662   3.346   0.133  0.00  0.00    -0.358 OA
ATOM     25  H   PLP d   1       0.699   4.293   0.323  0.00  0.00     0.217 HD
ENDBRANCH   7  24
TORSDOF 9
