REMARK  9 active torsions:
REMARK  status: ('A' for Active; 'I' for Inactive)
REMARK    1  A    between atoms: O_1  and  C_2 
REMARK    2  A    between atoms: C_7  and  C_8 
REMARK    3  A    between atoms: C_8  and  O_9 
REMARK    4  A    between atoms: O_9  and  P_10 
REMARK    5  A    between atoms: C_14  and  C_15 
REMARK    6  A    between atoms: N_16  and  C_17 
REMARK    7  A    between atoms: C_17  and  C_18 
REMARK    8  A    between atoms: C_17  and  C_21 
REMARK    9  A    between atoms: C_21  and  C_22 
ROOT
ATOM      1  C   PLA d   1       0.700  -2.338   0.090  0.00  0.00     0.102 A 
ATOM      2  C   PLA d   1      -0.074  -3.485   0.263  0.00  0.00     0.064 A 
ATOM      3  C   PLA d   1       0.570  -4.831   0.398  0.00  0.00     0.073 C 
ATOM      4  N   PLA d   1      -1.422  -3.453   0.321  0.00  0.00    -0.262 NA
ATOM      5  C   PLA d   1      -2.004  -2.230   0.189  0.00  0.00     0.127 A 
ATOM      6  C   PLA d   1      -1.335  -1.012   0.003  0.00  0.00    -0.002 A 
ATOM      7  C   PLA d   1       0.071  -1.078  -0.031  0.00  0.00     0.026 A 
ENDROOT
BRANCH   7   8
ATOM      8  C   PLA d   1       0.935   0.136  -0.175  0.00  0.00     0.126 C 
ATOM      9  N   PLA d   1       2.217  -0.015  -0.263  0.00  0.00    -0.284 NA
BRANCH   9  10
ATOM     10  C   PLA d   1       3.041   1.229  -0.376  0.00  0.00     0.218 C 
BRANCH  10  11
ATOM     11  C   PLA d   1       3.844   1.209  -1.740  0.00  0.00     0.199 C 
ATOM     12  O   PLA d   1       4.698   0.279  -1.902  0.00  0.00    -0.646 OA
ATOM     13  O   PLA d   1       3.572   2.147  -2.555  0.00  0.00    -0.646 OA
ENDBRANCH  10  11
BRANCH  10  14
ATOM     14  C   PLA d   1       4.084   1.242   0.753  0.00  0.00     0.151 C 
BRANCH  14  15
ATOM     15  C   PLA d   1       3.753   1.863   2.109  0.00  0.00     0.175 C 
ATOM     16  O   PLA d   1       2.669   2.496   2.227  0.00  0.00    -0.648 OA
ATOM     17  O   PLA d   1       4.659   1.711   2.993  0.00  0.00    -0.648 OA
ENDBRANCH  14  15
ENDBRANCH  10  14
ENDBRANCH   9  10
ENDBRANCH   7   8
BRANCH   1  18
ATOM     18  O   PLA d   1       2.066  -2.506   0.045  0.00  0.00    -0.358 OA
ATOM     19  H   PLA d   1       2.436  -3.363   0.130  0.00  0.00     0.217 HD
ENDBRANCH   1  18
BRANCH   6  20
ATOM     20  C   PLA d   1      -2.158   0.263  -0.142  0.00  0.00     0.223 C 
BRANCH  20  21
ATOM     21  O   PLA d   1      -3.534  -0.075  -0.211  0.00  0.00    -0.278 OA
BRANCH  21  22
ATOM     22  P   PLA d   1      -4.623   1.131  -0.365  0.00  0.00     0.422 P 
ATOM     23  O   PLA d   1      -4.270   1.787  -1.690  0.00  0.00    -0.617 OA
ATOM     24  O   PLA d   1      -4.402   1.998   0.863  0.00  0.00    -0.617 OA
ATOM     25  O   PLA d   1      -5.959   0.396  -0.372  0.00  0.00    -0.617 OA
ENDBRANCH  21  22
ENDBRANCH  20  21
ENDBRANCH   6  20
TORSDOF 9
