REMARK  12 active torsions:
REMARK  status: ('A' for Active; 'I' for Inactive)
REMARK    1  A    between atoms: C_5  and  C_6 
REMARK    2  A    between atoms: C_6  and  O_7 
REMARK    3  A    between atoms: O_7  and  P_8 
REMARK    4  A    between atoms: C_12  and  C_13 
REMARK    5  A    between atoms: N_14  and  C_15 
REMARK    6  A    between atoms: C_15  and  C_16 
REMARK    7  A    between atoms: C_15  and  C_23 
REMARK    8  A    between atoms: C_16  and  C_17 
REMARK    9  A    between atoms: C_16  and  O_30 
REMARK   10  A    between atoms: C_19  and  O_28 
REMARK   11  A    between atoms: C_20  and  O_29 
REMARK   12  A    between atoms: C_26  and  O_27 
ROOT
ATOM      1  C   PLH d   1      -0.052   0.784   0.570  0.00  0.00     0.126 C 
ATOM      2  N   PLH d   1       1.213   0.987   0.673  0.00  0.00    -0.282 NA
ENDROOT
BRANCH   2   3
ATOM      3  C   PLH d   1       1.988   0.547   1.822  0.00  0.00     0.241 C 
BRANCH   3   4
ATOM      4  C   PLH d   1       3.510   0.660   1.522  0.00  0.00     0.186 C 
BRANCH   4   5
ATOM      5  C   PLH d   1       4.026  -0.269   0.431  0.00  0.00    -0.024 A 
ATOM      6  C   PLH d   1       5.393  -0.242   0.113  0.00  0.00     0.049 A 
ATOM      7  C   PLH d   1       5.918  -1.082  -0.880  0.00  0.00     0.099 A 
ATOM      8  C   PLH d   1       5.068  -1.972  -1.562  0.00  0.00     0.098 A 
ATOM      9  C   PLH d   1       3.705  -2.006  -1.245  0.00  0.00     0.040 A 
ATOM     10  C   PLH d   1       3.189  -1.160  -0.260  0.00  0.00     0.013 A 
BRANCH   7  11
ATOM     11  O   PLH d   1       7.233  -1.037  -1.181  0.00  0.00    -0.358 OA
ATOM     12  H   PLH d   1       7.797  -0.443  -0.726  0.00  0.00     0.217 HD
ENDBRANCH   7  11
BRANCH   8  13
ATOM     13  O   PLH d   1       5.541  -2.798  -2.519  0.00  0.00    -0.358 OA
ATOM     14  H   PLH d   1       6.451  -2.786  -2.741  0.00  0.00     0.217 HD
ENDBRANCH   8  13
ENDBRANCH   4   5
BRANCH   4  15
ATOM     15  O   TYR d   2       3.868   1.990   1.230  0.00  0.00    -0.388 OA
ATOM     16  H   TYR d   2       3.430   2.270   0.411  0.00  0.00     0.210 HD
ENDBRANCH   4  15
ENDBRANCH   3   4
BRANCH   3  17
ATOM     17  C   PLH d   1       1.610   1.351   3.039  0.00  0.00     0.201 C 
ATOM     18  O   PLH d   1       1.751   2.522   2.820  0.00  0.00    -0.646 OA
ATOM     19  O   PLH d   1       1.276   0.601   3.913  0.00  0.00    -0.646 OA
ENDBRANCH   3  17
ENDBRANCH   2   3
BRANCH   1  20
ATOM     20  C   PLH d   1      -0.873   1.264  -0.596  0.00  0.00     0.026 A 
ATOM     21  C   PLH d   1      -2.208   0.775  -0.728  0.00  0.00    -0.002 A 
ATOM     22  C   PLH d   1      -2.989   1.210  -1.812  0.00  0.00     0.127 A 
ATOM     23  N   PLH d   1      -2.491   2.082  -2.716  0.00  0.00    -0.262 NA
ATOM     24  C   PLH d   1      -1.235   2.578  -2.635  0.00  0.00     0.064 A 
ATOM     25  C   PLH d   1      -0.802   3.553  -3.695  0.00  0.00     0.073 C 
ATOM     26  C   PLH d   1      -0.388   2.188  -1.579  0.00  0.00     0.102 A 
BRANCH  21  27
ATOM     27  C   PLH d   1      -2.789  -0.220   0.266  0.00  0.00     0.223 C 
BRANCH  27  28
ATOM     28  O   PLH d   1      -4.103  -0.598  -0.069  0.00  0.00    -0.278 OA
BRANCH  28  29
ATOM     29  P   PLH d   1      -4.607  -1.854   1.040  0.00  0.00     0.422 P 
ATOM     30  O   PLH d   1      -4.647  -1.251   2.470  0.00  0.00    -0.617 OA
ATOM     31  O   PLH d   1      -3.510  -3.200   1.059  0.00  0.00    -0.617 OA
ATOM     32  O   PLH d   1      -6.219  -2.384   0.676  0.00  0.00    -0.617 OA
ENDBRANCH  28  29
ENDBRANCH  27  28
ENDBRANCH  21  27
BRANCH  26  33
ATOM     33  O   PLH d   1       0.848   2.739  -1.550  0.00  0.00    -0.358 OA
ATOM     34  H   PLH d   1       1.110   3.338  -2.222  0.00  0.00     0.217 HD
ENDBRANCH  26  33
ENDBRANCH   1  20
TORSDOF 12
