REMARK  10 active torsions:
REMARK  status: ('A' for Active; 'I' for Inactive)
REMARK    1  A    between atoms: C_5  and  C_6 
REMARK    2  A    between atoms: C_6  and  O_7 
REMARK    3  A    between atoms: O_7  and  P_8 
REMARK    4  A    between atoms: C_12  and  C_13 
REMARK    5  A    between atoms: N_14  and  C_15 
REMARK    6  A    between atoms: C_15  and  C_16 
REMARK    7  A    between atoms: C_15  and  C_17 
REMARK    8  A    between atoms: C_16  and  C_22 
REMARK    9  A    between atoms: C_20  and  O_21 
REMARK   10  A    between atoms: C_22  and  C_23 
ROOT
ATOM      1  C   PLP A          -1.200   3.797  -3.365  0.00  0.00     0.070 C 
ATOM      2  C   PLP A          -1.545   2.684  -2.420  0.00  0.00     0.068 A 
ATOM      3  N   PLP A          -2.820   2.237  -2.380  0.00  0.00    -0.259 NA
ATOM      4  C   PLP A          -3.210   1.240  -1.556  0.00  0.00     0.118 A 
ATOM      5  C   PLP A          -2.294   0.621  -0.686  0.00  0.00     0.008 A 
ATOM      6  C   PLP A          -0.934   1.063  -0.685  0.00  0.00     0.031 A 
ATOM      7  C   PLP A          -0.566   2.117  -1.588  0.00  0.00     0.102 A 
ENDROOT
BRANCH   6   8
ATOM      8  C   PLP A           0.035   0.411   0.263  0.00  0.00     0.117 C 
ATOM      9  N   GLU A           1.278   0.735   0.301  0.00  0.00    -0.283 NA
BRANCH   9  10
ATOM     10  C   GLU A           2.250   0.163   1.210  0.00  0.00     0.151 C 
BRANCH  10  11
ATOM     11  C   GLU A           3.315  -0.609   0.412  0.00  0.00     0.039 C 
BRANCH  11  12
ATOM     12  C   GLU A           2.707  -1.820  -0.311  0.00  0.00     0.055 C 
BRANCH  12  13
ATOM     13  C   GLU A           3.753  -2.568  -1.096  0.00  0.00     0.042 C 
ATOM     14  O   GLU A           4.716  -3.048  -0.515  0.00  0.00    -0.550 OA
ATOM     15  O   GLU A           3.634  -2.721  -2.436  0.00  0.00    -0.550 OA
ENDBRANCH  12  13
ENDBRANCH  11  12
ENDBRANCH  10  11
BRANCH  10  16
ATOM     16  C   GLU A           2.888   1.281   1.990  0.00  0.00     0.066 C 
ATOM     17  O   GLU A           3.483   2.178   1.412  0.00  0.00    -0.548 OA
ATOM     18  O   GLU A           2.797   1.304   3.333  0.00  0.00    -0.548 OA
ENDBRANCH  10  16
ENDBRANCH   9  10
ENDBRANCH   6   8
BRANCH   5  19
ATOM     19  C   PLP A          -2.770  -0.504   0.224  0.00  0.00     0.203 C 
BRANCH  19  20
ATOM     20  O   PLP A          -4.138  -0.782   0.037  0.00  0.00    -0.350 OA
BRANCH  20  21
ATOM     21  P   PLP A          -4.580  -2.123   1.067  0.00  0.00     0.060 P 
ATOM     22  O   PLP A          -4.519  -1.640   2.541  0.00  0.00    -0.634 OA
ATOM     23  O   PLP A          -3.503  -3.476   0.903  0.00  0.00    -0.634 OA
ATOM     24  O   PLP A          -6.219  -2.609   0.769  0.00  0.00    -0.634 OA
ENDBRANCH  20  21
ENDBRANCH  19  20
ENDBRANCH   5  19
BRANCH   7  25
ATOM     25  O   PLP A           0.685   2.626  -1.707  0.00  0.00    -0.358 OA
ATOM     26  H   PLP A           1.488   2.359  -1.254  0.00  0.00     0.218 HD
ENDBRANCH   7  25
TORSDOF 10
