REMARK  14 active torsions:
REMARK  status: ('A' for Active; 'I' for Inactive)
REMARK    1  A    between atoms: C_5  and  C_6 
REMARK    2  A    between atoms: C_6  and  O_7 
REMARK    3  A    between atoms: O_7  and  P_8 
REMARK    4  A    between atoms: C_12  and  C_13 
REMARK    5  A    between atoms: C_13  and  N_14 
REMARK    6  A    between atoms: N_14  and  C_15 
REMARK    7  A    between atoms: C_15  and  C_16 
REMARK    8  A    between atoms: C_15  and  C_19 
REMARK    9  A    between atoms: C_19  and  C_20 
REMARK   10  A    between atoms: C_19  and  O_26 
REMARK   11  A    between atoms: C_20  and  C_21 
REMARK   12  A    between atoms: C_21  and  C_22 
REMARK   13  A    between atoms: C_22  and  N_27 
REMARK   14  A    between atoms: C_23  and  O_24 
ROOT
ATOM      1  C   PLP A           0.154   0.502  -0.467  0.00  0.00     0.120 C 
ENDROOT
BRANCH   1   2
ATOM      2  C   PLP A           1.482   0.929   0.088  0.00  0.00     0.005 A 
ATOM      3  C   PLP A           2.597   0.076   0.347  0.00  0.00     0.004 A 
ATOM      4  C   PLP A           3.744   0.633   0.944  0.00  0.00     0.117 A 
ATOM      5  N   PLP A           3.801   1.950   1.256  0.00  0.00    -0.259 NA
ATOM      6  C   PLP A           2.770   2.794   1.024  0.00  0.00     0.068 A 
ATOM      7  C   PLP A           2.910   4.234   1.427  0.00  0.00     0.070 C 
ATOM      8  C   PLP A           1.588   2.305   0.435  0.00  0.00     0.097 A 
BRANCH   3   9
ATOM      9  C   PLP A           2.652  -1.406   0.043  0.00  0.00     0.203 C 
BRANCH   9  10
ATOM     10  O   PLP A           3.848  -1.718  -0.645  0.00  0.00    -0.350 OA
BRANCH  10  11
ATOM     11  P   PLP A           4.580  -3.147   0.070  0.00  0.00     0.060 P 
ATOM     12  O   PLP A           3.470  -4.216   0.268  0.00  0.00    -0.634 OA
ATOM     13  O   PLP A           5.760  -3.855  -0.986  0.00  0.00    -0.634 OA
ATOM     14  O   PLP A           5.266  -2.816   1.631  0.00  0.00    -0.634 OA
ENDBRANCH  10  11
ENDBRANCH   9  10
ENDBRANCH   3   9
BRANCH   8  15
ATOM     15  O   PLP A           0.536   3.133   0.227  0.00  0.00    -0.359 OA
ATOM     16  H   PLP A           0.518   4.070   0.464  0.00  0.00     0.218 HD
ENDBRANCH   8  15
ENDBRANCH   1   2
BRANCH   1  17
ATOM     17  N   HTL A          -0.268  -0.721  -0.550  0.00  0.00    -0.303 NA
ATOM     18  H   HTL A          -0.135  -1.117   0.380  0.00  0.00     0.123 HD
BRANCH  17  19
ATOM     19  C   HTL A          -1.624  -1.127  -0.957  0.00  0.00     0.129 C 
BRANCH  19  20
ATOM     20  C   HTL A          -2.539   0.046  -1.264  0.00  0.00     0.061 C 
ATOM     21  O   HTL A          -2.820   0.869  -0.406  0.00  0.00    -0.548 OA
ATOM     22  O   HTL A          -3.039   0.191  -2.506  0.00  0.00    -0.548 OA
ENDBRANCH  19  20
BRANCH  19  23
ATOM     23  C   HTL A          -2.217  -2.110   0.108  0.00  0.00     0.137 C 
BRANCH  23  24
ATOM     24  C   HTL A          -3.705  -2.551  -0.096  0.00  0.00     0.043 C 
BRANCH  24  25
ATOM     25  C   HTL A          -4.744  -1.541   0.457  0.00  0.00     0.079 C 
BRANCH  25  26
ATOM     26  C   HTL A          -6.220  -1.993   0.446  0.00  0.00     0.061 C 
BRANCH  26  27
ATOM     27  N   HTL A          -7.065  -1.773  -0.761  0.00  0.00     0.275 N 
ATOM     28  C   HTL A          -6.854  -2.837  -1.764  0.00  0.00     0.193 C 
ATOM     29  C   HTL A          -6.837  -0.446  -1.380  0.00  0.00     0.193 C 
ATOM     30  C   HTL A          -8.471  -1.823  -0.297  0.00  0.00     0.193 C 
ENDBRANCH  26  27
ENDBRANCH  25  26
ENDBRANCH  24  25
ENDBRANCH  23  24
BRANCH  23  31
ATOM     31  O   HTL A          -2.001  -1.671   1.427  0.00  0.00    -0.391 OA
ATOM     32  H   HTL A          -2.320  -0.736   1.497  0.00  0.00     0.211 HD
ENDBRANCH  23  31
ENDBRANCH  19  23
ENDBRANCH  17  19
ENDBRANCH   1  17
TORSDOF 14
