REMARK  13 active torsions:
REMARK  status: ('A' for Active; 'I' for Inactive)
REMARK    1  A    between atoms: C_1  and  C_2 
REMARK    2  A    between atoms: C_3  and  C_9 
REMARK    3  A    between atoms: C_8  and  O_15 
REMARK    4  A    between atoms: C_9  and  O_10 
REMARK    5  A    between atoms: O_10  and  P_11 
REMARK    6  A    between atoms: N_17  and  C_18 
REMARK    7  A    between atoms: C_18  and  C_27 
REMARK    8  A    between atoms: C_18  and  C_19 
REMARK    9  A    between atoms: C_19  and  C_20 
REMARK   10  A    between atoms: C_19  and  O_30 
REMARK   11  A    between atoms: C_20  and  C_21 
REMARK   12  A    between atoms: C_21  and  C_22 
REMARK   13  A    between atoms: C_22  and  N_23 
ROOT
ATOM      1  C   PLP A          -0.290   1.758  -0.625  0.00  0.00     0.117 C 
ATOM      2  N   HTL A          -0.620   0.807  -1.431  0.00  0.00    -0.280 NA
ENDROOT
BRANCH   1   3
ATOM      3  C   PLP A           1.065   1.841   0.016  0.00  0.00     0.031 A 
ATOM      4  C   PLP A           1.384   3.037   0.712  0.00  0.00     0.102 A 
ATOM      5  C   PLP A           2.662   3.177   1.310  0.00  0.00     0.068 A 
ATOM      6  N   PLP A           3.553   2.163   1.212  0.00  0.00    -0.259 NA
ATOM      7  C   PLP A           3.126   4.401   2.055  0.00  0.00     0.070 C 
ATOM      8  C   PLP A           3.283   1.006   0.565  0.00  0.00     0.118 A 
ATOM      9  C   PLP A           2.039   0.798  -0.056  0.00  0.00     0.008 A 
BRANCH   4  10
ATOM     10  O   PLP A           0.454   4.019   0.772  0.00  0.00    -0.358 OA
ATOM     11  H   PLP A           0.556   4.872   1.209  0.00  0.00     0.218 HD
ENDBRANCH   4  10
BRANCH   9  12
ATOM     12  C   PLP A           1.772  -0.520  -0.770  0.00  0.00     0.203 C 
BRANCH  12  13
ATOM     13  O   PLP A           2.872  -1.406  -0.730  0.00  0.00    -0.350 OA
BRANCH  13  14
ATOM     14  P   PLP A           2.724  -2.468   0.657  0.00  0.00     0.060 P 
ATOM     15  O   PLP A           1.655  -3.542   0.322  0.00  0.00    -0.634 OA
ATOM     16  O   PLP A           4.212  -3.311   0.949  0.00  0.00    -0.634 OA
ATOM     17  O   PLP A           2.202  -1.632   2.087  0.00  0.00    -0.634 OA
ENDBRANCH  13  14
ENDBRANCH  12  13
ENDBRANCH   9  12
ENDBRANCH   1   3
BRANCH   2  18
ATOM     18  C   HTL A          -1.892   0.734  -2.133  0.00  0.00     0.179 C 
BRANCH  18  19
ATOM     19  C   HTL A          -2.087   1.989  -2.963  0.00  0.00     0.069 C 
ATOM     20  O   HTL A          -1.260   2.283  -3.812  0.00  0.00    -0.548 OA
ATOM     21  O   HTL A          -3.151   2.795  -2.775  0.00  0.00    -0.548 OA
ENDBRANCH  18  19
BRANCH  18  22
ATOM     22  C   HTL A          -3.078   0.449  -1.166  0.00  0.00     0.145 C 
BRANCH  22  23
ATOM     23  C   HTL A          -2.875  -0.886  -0.402  0.00  0.00     0.040 C 
BRANCH  23  24
ATOM     24  C   HTL A          -3.956  -1.247   0.644  0.00  0.00     0.053 C 
BRANCH  24  25
ATOM     25  C   HTL A          -5.358  -1.529   0.039  0.00  0.00     0.130 C 
BRANCH  25  26
ATOM     26  N   HTL A          -6.385  -2.058   0.990  0.00  0.00     0.248 N 
ATOM     27  C   HTL A          -7.666  -2.190   0.250  0.00  0.00     0.189 C 
ATOM     28  C   HTL A          -6.599  -1.136   2.129  0.00  0.00     0.189 C 
ATOM     29  C   HTL A          -6.012  -3.399   1.501  0.00  0.00     0.189 C 
ENDBRANCH  25  26
ENDBRANCH  24  25
ENDBRANCH  23  24
ENDBRANCH  22  23
BRANCH  22  30
ATOM     30  O   HTL A          -4.276   0.428  -1.902  0.00  0.00    -0.391 OA
ATOM     31  H   HTL A          -4.222  -0.324  -2.549  0.00  0.00     0.211 HD
ENDBRANCH  22  30
ENDBRANCH  18  22
ENDBRANCH   2  18
TORSDOF 13

