REMARK  11 active torsions:
REMARK  status: ('A' for Active; 'I' for Inactive)
REMARK    1  A    between atoms: C_5  and  C_6 
REMARK    2  A    between atoms: C_6  and  O_7 
REMARK    3  A    between atoms: O_7  and  P_8 
REMARK    4  A    between atoms: C_12  and  C_13 
REMARK    5  A    between atoms: N_14  and  C_15 
REMARK    6  A    between atoms: C_15  and  C_18 
REMARK    7  A    between atoms: C_15  and  C_21 
REMARK    8  A    between atoms: C_16  and  O_17 
REMARK    9  A    between atoms: C_18  and  C_19 
REMARK   10  A    between atoms: C_19  and  C_20 
REMARK   11  A    between atoms: C_20  and  N_22 
ROOT
ATOM      1  C   PLP d   1       2.794   4.503   1.348  0.00  0.00     0.073 C 
ATOM      2  C   PLP d   1       2.998   3.018   1.302  0.00  0.00     0.064 A 
ATOM      3  N   PLP d   1       4.208   2.510   1.641  0.00  0.00    -0.262 NA
ATOM      4  C   PLP d   1       4.470   1.186   1.605  0.00  0.00     0.127 A 
ATOM      5  C   PLP d   1       3.494   0.267   1.200  0.00  0.00    -0.002 A 
ATOM      6  C   PLP d   1       2.210   0.754   0.804  0.00  0.00     0.026 A 
ATOM      7  C   PLP d   1       1.964   2.164   0.885  0.00  0.00     0.102 A 
ENDROOT
BRANCH   6   8
ATOM      8  C   PLP d   1       1.239  -0.201   0.191  0.00  0.00     0.126 C 
ATOM      9  N   ORN d   1       0.156   0.199  -0.365  0.00  0.00    -0.285 NA
BRANCH   9  10
ATOM     10  C   ORN d   1      -0.597  -0.630  -1.274  0.00  0.00     0.208 C 
BRANCH  10  11
ATOM     11  C   ORN d   1      -1.984  -0.939  -0.676  0.00  0.00     0.040 C 
BRANCH  11  12
ATOM     12  C   ORN d   1      -2.772  -2.015  -1.445  0.00  0.00     0.030 C 
BRANCH  12  13
ATOM     13  C   ORN d   1      -2.089  -3.395  -1.498  0.00  0.00     0.230 C 
BRANCH  13  14
ATOM     14  N   ORN d   1      -1.925  -4.007  -0.178  0.00  0.00    -0.079 N 
ATOM     15  H   ORN d   1      -1.327  -3.416   0.399  0.00  0.00     0.274 HD
ATOM     16  H   ORN d   1      -1.497  -4.927  -0.280  0.00  0.00     0.274 HD
ATOM     17  H   ORN d   1      -2.838  -4.105   0.267  0.00  0.00     0.274 HD
ENDBRANCH  13  14
ENDBRANCH  12  13
ENDBRANCH  11  12
ENDBRANCH  10  11
BRANCH  10  18
ATOM     18  C   ORN d   1      -0.585   0.134  -2.575  0.00  0.00     0.198 C 
ATOM     19  O   ORN d   1      -1.615   0.487  -3.127  0.00  0.00    -0.646 OA
ATOM     20  OXT ORN d   1       0.617   0.526  -3.063  0.00  0.00    -0.646 OA
ENDBRANCH  10  18
ENDBRANCH   9  10
ENDBRANCH   6   8
BRANCH   5  21
ATOM     21  C   PLP d   1       3.910  -1.194   1.197  0.00  0.00     0.223 C 
BRANCH  21  22
ATOM     22  O   PLP d   1       4.813  -1.408   0.138  0.00  0.00    -0.278 OA
BRANCH  22  23
ATOM     23  P   PLP d   1       5.127  -3.126   0.010  0.00  0.00     0.422 P 
ATOM     24  O   PLP d   1       3.794  -3.846  -0.332  0.00  0.00    -0.617 OA
ATOM     25  O   PLP d   1       6.216  -3.455  -1.301  0.00  0.00    -0.617 OA
ATOM     26  O   PLP d   1       5.729  -3.793   1.494  0.00  0.00    -0.617 OA
ENDBRANCH  22  23
ENDBRANCH  21  22
ENDBRANCH   5  21
BRANCH   7  27
ATOM     27  O   PLP d   1       0.788   2.760   0.562  0.00  0.00    -0.358 OA
ATOM     28  H   PLP d   1       0.696   3.689   0.639  0.00  0.00     0.217 HD
ENDBRANCH   7  27
TORSDOF 11
