REMARK  10 active torsions:
REMARK  status: ('A' for Active; 'I' for Inactive)
REMARK    1  A    between atoms: C_5  and  C_6 
REMARK    2  A    between atoms: C_6  and  O_7 
REMARK    3  A    between atoms: O_7  and  P_8 
REMARK    4  A    between atoms: C_12  and  C_13 
REMARK    5  A    between atoms: N_14  and  C_15 
REMARK    6  A    between atoms: C_15  and  C_16 
REMARK    7  A    between atoms: C_15  and  C_22 
REMARK    8  A    between atoms: C_19  and  O_20 
REMARK    9  A    between atoms: C_22  and  C_23 
REMARK   10  A    between atoms: C_23  and  O_25 
ROOT
ATOM      1  C   PLP A           3.049   4.321   1.434  0.00  0.00     0.070 C 
ATOM      2  C   PLP A           2.847   2.889   1.042  0.00  0.00     0.068 A 
ATOM      3  N   PLP A           3.831   1.999   1.317  0.00  0.00    -0.259 NA
ATOM      4  C   PLP A           3.721   0.686   1.018  0.00  0.00     0.118 A 
ATOM      5  C   PLP A           2.569   0.173   0.401  0.00  0.00     0.008 A 
ATOM      6  C   PLP A           1.495   1.086   0.095  0.00  0.00     0.031 A 
ATOM      7  C   PLP A           1.660   2.452   0.421  0.00  0.00     0.102 A 
ENDROOT
BRANCH   6   8
ATOM      8  C   PLP A           0.181   0.686  -0.507  0.00  0.00     0.117 C 
ATOM      9  N   THR A          -0.134  -0.549  -0.621  0.00  0.00    -0.283 NA
BRANCH   9  10
ATOM     10  C   THR A          -1.371  -1.142  -1.094  0.00  0.00     0.153 C 
BRANCH  10  11
ATOM     11  C   THR A          -2.433  -0.150  -1.535  0.00  0.00     0.066 C 
ATOM     12  O   THR A          -2.914   0.640  -0.737  0.00  0.00    -0.548 OA
ATOM     13  O   THR A          -2.860  -0.144  -2.812  0.00  0.00    -0.548 OA
ENDBRANCH  10  11
BRANCH  10  14
ATOM     14  C   THR A          -1.886  -2.051   0.045  0.00  0.00     0.065 C 
BRANCH  14  15
ATOM     15  C   THR A          -2.769  -3.237  -0.394  0.00  0.00     0.113 C 
ATOM     16  C   THR A          -1.965  -4.275  -1.200  0.00  0.00     0.038 C 
BRANCH  15  17
ATOM     17  O   THR A          -3.314  -3.861   0.743  0.00  0.00    -0.393 OA
ATOM     18  H   THR A          -2.562  -4.159   1.321  0.00  0.00     0.210 HD
ENDBRANCH  15  17
ENDBRANCH  14  15
ENDBRANCH  10  14
ENDBRANCH   9  10
ENDBRANCH   6   8
BRANCH   5  19
ATOM     19  C   PLP A           2.590  -1.326   0.130  0.00  0.00     0.203 C 
BRANCH  19  20
ATOM     20  O   PLP A           3.718  -1.636  -0.663  0.00  0.00    -0.350 OA
BRANCH  20  21
ATOM     21  P   PLP A           4.501  -3.076  -0.038  0.00  0.00     0.060 P 
ATOM     22  O   PLP A           3.432  -4.196   0.094  0.00  0.00    -0.634 OA
ATOM     23  O   PLP A           5.707  -3.664  -1.139  0.00  0.00    -0.634 OA
ATOM     24  O   PLP A           5.182  -2.808   1.537  0.00  0.00    -0.634 OA
ENDBRANCH  20  21
ENDBRANCH  19  20
ENDBRANCH   5  19
BRANCH   7  25
ATOM     25  O   PLP A           0.659   3.327   0.152  0.00  0.00    -0.358 OA
ATOM     26  H   PLP A           0.702   4.269   0.361  0.00  0.00     0.218 HD
ENDBRANCH   7  25
TORSDOF 10
