REMARK  9 active torsions:
REMARK  status: ('A' for Active; 'I' for Inactive)
REMARK    1  A    between atoms: C_5  and  C_6 
REMARK    2  A    between atoms: C_6  and  O_7 
REMARK    3  A    between atoms: O_7  and  P_8 
REMARK    4  A    between atoms: C_12  and  C_13 
REMARK    5  A    between atoms: N_14  and  C_15 
REMARK    6  A    between atoms: C_15  and  C_16 
REMARK    7  A    between atoms: C_15  and  C_22 
REMARK    8  A    between atoms: C_19  and  O_20 
REMARK    9  A    between atoms: C_22  and  O_24 
ROOT
ATOM      1  C   PLP d   1       3.059   4.356   1.415  0.00  0.00     0.073 C 
ATOM      2  C   PLP d   1       2.841   2.921   1.038  0.00  0.00     0.064 A 
ATOM      3  N   PLP d   1       3.821   2.033   1.322  0.00  0.00    -0.262 NA
ATOM      4  C   PLP d   1       3.710   0.717   1.035  0.00  0.00     0.127 A 
ATOM      5  C   PLP d   1       2.558   0.200   0.422  0.00  0.00    -0.002 A 
ATOM      6  C   PLP d   1       1.486   1.106   0.109  0.00  0.00     0.026 A 
ATOM      7  C   PLP d   1       1.652   2.480   0.421  0.00  0.00     0.102 A 
ENDROOT
BRANCH   6   8
ATOM      8  C   PLP d   1       0.173   0.704  -0.494  0.00  0.00     0.126 C 
ATOM      9  N   THR d   1      -0.151  -0.533  -0.596  0.00  0.00    -0.282 NA
BRANCH   9  10
ATOM     10  C   THR d   1      -1.375  -1.154  -1.084  0.00  0.00     0.236 C 
BRANCH  10  11
ATOM     11  C   THR d   1      -2.429  -0.178  -1.550  0.00  0.00     0.201 C 
ATOM     12  O   THR d   1      -2.798   0.506  -0.638  0.00  0.00    -0.646 OA
ATOM     13  O   THR d   1      -2.625  -0.352  -2.721  0.00  0.00    -0.646 OA
ENDBRANCH  10  11
BRANCH  10  14
ATOM     14  C   THR d   2      -1.907  -2.096   0.034  0.00  0.00     0.153 C 
ATOM     15  C   THR d   3      -2.958  -3.078  -0.486  0.00  0.00     0.037 C 
BRANCH  14  16
ATOM     16  O   THR d   3      -0.855  -2.824   0.622  0.00  0.00    -0.393 OA
ATOM     17  HG1 THR d   1      -0.367  -3.296  -0.101  0.00  0.00     0.210 HD
ENDBRANCH  10  14
ENDBRANCH  14  16
ENDBRANCH   9  10
ENDBRANCH   6   8
BRANCH   5  18
ATOM     18  C   PLP d   1       2.601  -1.298   0.165  0.00  0.00     0.223 C 
BRANCH  18  19
ATOM     19  O   PLP d   1       3.728  -1.594  -0.635  0.00  0.00    -0.278 OA
BRANCH  19  20
ATOM     20  P   PLP d   1       4.474  -3.070  -0.060  0.00  0.00     0.422 P 
ATOM     21  O   PLP d   1       3.291  -4.333   0.071  0.00  0.00    -0.617 OA
ATOM     22  O   PLP d   1       5.702  -3.562  -1.183  0.00  0.00    -0.617 OA
ATOM     23  O   PLP d   1       5.210  -2.788   1.488  0.00  0.00    -0.617 OA
ENDBRANCH  19  20
ENDBRANCH  18  19
ENDBRANCH   5  18
BRANCH   7  24
ATOM     24  O   PLP d   1       0.656   3.354   0.141  0.00  0.00    -0.358 OA
ATOM     25  H   PLP d   1       0.694   4.300   0.335  0.00  0.00     0.217 HD
ENDBRANCH   7  24
TORSDOF 9
