REMARK  13 active torsions:
REMARK  status: ('A' for Active; 'I' for Inactive)
REMARK    1  A    between atoms: C5_5  and  C6_6 
REMARK    2  A    between atoms: C6_6  and  O7_7 
REMARK    3  A    between atoms: O7_7  and  P8_8 
REMARK    4  A    between atoms: C12_12  and  C13_13 
REMARK    5  A    between atoms: N14_14  and  C15_15 
REMARK    6  A    between atoms: C15_15  and  C17_16 
REMARK    7  A    between atoms: C15_15  and  C20_19 
REMARK    8  A    between atoms: C20_19  and  O21_20 
REMARK    9  A    between atoms: C20_19  and  C22_21 
REMARK   10  A    between atoms: C22_21  and  C23_22 
REMARK   11  A    between atoms: C23_22  and  C24_23 
REMARK   12  A    between atoms: C24_23  and  N25_24 
REMARK   13  A    between atoms: C29_28  and  O30_29 
ROOT
ATOM      1  C1  UNK A   1       3.255   4.900   1.200  0.00  0.00     0.070 C 
ATOM      2  C2  UNK A   1       3.088   3.447   0.873  0.00  0.00     0.068 A 
ATOM      3  N3  UNK A   1       4.099   2.621   1.235  0.00  0.00    -0.259 NA
ATOM      4  C4  UNK A   1       3.941   1.293   0.980  0.00  0.00     0.118 A 
ATOM      5  C5  UNK A   1       2.826   0.731   0.367  0.00  0.00     0.008 A 
ATOM      6  C12 UNK A   1       1.808   1.619  -0.020  0.00  0.00     0.031 A 
ATOM      7  C13 UNK A   1       0.582   1.103  -0.673  0.00  0.00     0.117 C 
ATOM      8  N14 UNK A   1      -0.417   1.881  -0.963  0.00  0.00    -0.280 NA
ATOM      9  C29 UNK A   1       1.932   2.990   0.246  0.00  0.00     0.102 A 
ATOM     10  O30 UNK A   1       0.954   3.898  -0.076  0.00  0.00    -0.358 OA
ATOM     11  H57 UNK A   1       0.202   3.381  -0.462  0.00  0.00     0.218 HD
ENDROOT
BRANCH   8  12
ATOM     12  C15 UNK A   1      -1.584   1.105  -1.494  0.00  0.00     0.179 C 
BRANCH  12  13
ATOM     13  C17 UNK A   1      -2.620   2.035  -2.201  0.00  0.00     0.069 C 
ATOM     14  O18 UNK A   1      -3.175   2.904  -1.456  0.00  0.00    -0.548 OA
ATOM     15  O19 UNK A   1      -2.910   1.723  -3.394  0.00  0.00    -0.548 OA
ENDBRANCH  12  13
BRANCH  12  16
ATOM     16  C20 UNK A   1      -2.325   0.432  -0.313  0.00  0.00     0.145 C 
BRANCH  16  17
ATOM     17  O21 UNK A   1      -2.814   1.383   0.650  0.00  0.00    -0.391 OA
ATOM     18  H41 UNK A   1      -2.921   2.224   0.133  0.00  0.00     0.211 HD
ENDBRANCH  16  17
BRANCH  16  19
ATOM     19  C22 UNK A   1      -3.491  -0.443  -0.779  0.00  0.00     0.040 C 
BRANCH  19  20
ATOM     20  C23 UNK A   1      -4.248  -1.039   0.406  0.00  0.00     0.053 C 
BRANCH  20  21
ATOM     21  C24 UNK A   1      -5.501  -1.749  -0.080  0.00  0.00     0.130 C 
BRANCH  21  22
ATOM     22  N25 UNK A   1      -6.566  -1.914   1.030  0.00  0.00     0.248 N 
ATOM     23  C26 UNK A   1      -7.135  -0.551   1.417  0.00  0.00     0.189 C 
ATOM     24  C27 UNK A   1      -7.686  -2.772   0.470  0.00  0.00     0.189 C 
ATOM     25  C28 UNK A   1      -5.970  -2.594   2.253  0.00  0.00     0.189 C 
ENDBRANCH  21  22
ENDBRANCH  20  21
ENDBRANCH  19  20
ENDBRANCH  16  19
ENDBRANCH  12  16
ENDBRANCH   8  12
BRANCH   5  26
ATOM     26  C6  UNK A   1       2.730  -0.761   0.140  0.00  0.00     0.203 C 
BRANCH  26  27
ATOM     27  O7  UNK A   1       3.785  -1.476   0.741  0.00  0.00    -0.350 OA
BRANCH  27  28
ATOM     28  P8  UNK A   1       3.518  -3.095   0.802  0.00  0.00     0.060 P 
ATOM     29  O9  UNK A   1       2.341  -3.224   1.760  0.00  0.00    -0.634 OA
ATOM     30  O10 UNK A   1       3.182  -3.454  -0.638  0.00  0.00    -0.634 OA
ATOM     31  O11 UNK A   1       4.832  -3.655   1.318  0.00  0.00    -0.634 OA
ENDBRANCH  27  28
ENDBRANCH  26  27
ENDBRANCH   5  26
TORSDOF 13
